Version 4
SHEET 1 880 680
WIRE 100 180 260 180
WIRE 260 180 260 100
SYMBOL voltage 100 100 R0
SYMATTR InstName V1
SYMATTR Value 5
SYMBOL res 180 100 R90
SYMATTR InstName R1
SYMATTR Value 1k
SYMBOL res 180 100 R270
SYMATTR InstName R2
SYMATTR Value 1k
SYMBOL res 100 100 R0
SYMATTR InstName R3
SYMATTR Value 1k
SYMBOL res 260 180 R180
SYMATTR InstName R4
SYMATTR Value 1k
FLAG 260 100 0