Version 4
SHEET 1 880 680
WIRE 50 100 150 100
SYMBOL voltage 50 100 R0
SYMATTR InstName V1
SYMATTR Value 5
WIRE 50 180 170 180
WIRE 170 180 170 360
SYMBOL res 166 116 R0
SYMATTR InstName R1
SYMATTR Value 1k
SYMBOL res 166 196 R0
SYMATTR InstName R2
SYMATTR Value 2.2k
SYMBOL res 166 276 R0
SYMATTR InstName R3
SYMATTR Value 4.7k
SYMBOL res 206 276 R0
SYMATTR InstName R4
SYMATTR Value 4.7k
WIRE 150 260 190 260
WIRE 150 340 170 340
WIRE 190 340 170 340
FLAG 170 360 0