Version 4
SHEET 1 880 680
WIRE 96 112 160 112
WIRE 160 112 240 112
WIRE 96 192 160 192
WIRE 160 192 240 192
SYMBOL voltage 96 96 R0
SYMATTR InstName V1
SYMATTR Value 5
SYMBOL res 144 96 R0
SYMATTR InstName R1
SYMATTR Value 3
SYMBOL res 224 96 R0
SYMATTR InstName R2
SYMATTR Value 4
FLAG 96 192 0