Version 4
SHEET 1 880 680
WIRE 224 144 128 144
WIRE 336 144 256 144
WIRE 336 160 336 144
FLAG 336 160 0
FLAG 336 144 output
IOPIN 336 144 Out
SYMBOL voltage 128 144 R0
WINDOW 123 0 0 Left 0
WINDOW 39 0 0 Left 0
SYMATTR InstName V1
SYMATTR Value SINE(0 AC 1)
SYMBOL res 256 144 R0
SYMATTR InstName R1
SYMATTR Value 1k
SYMBOL cap 336 144 R90
WINDOW 0 0 32 VBottom 2
WINDOW 3 32 32 VTop 2
SYMATTR InstName C1
SYMATTR Value 0.1e-6