Version 4
SHEET 1 880 680
WIRE 160 64 160 304
WIRE 400 64 400 304
WIRE 80 128 160 128
WIRE 80 168 400 168
WIRE 160 64 200 64
WIRE 400 64 260 64
WIRE 160 96 200 96
WIRE 400 96 260 96
WIRE 160 128 200 128
WIRE 400 128 260 128
WIRE 160 160 200 160
WIRE 400 160 260 160
WIRE 160 192 200 192
WIRE 400 192 260 192
WIRE 160 224 200 224
WIRE 400 224 260 224
SYMBOL voltage 80 128 R0
SYMATTR InstName V1
SYMATTR Value 6
SYMBOL res 200 64 R0
SYMATTR InstName R1
SYMATTR Value 1k
SYMBOL res 200 96 R0
SYMATTR InstName R2
SYMATTR Value 1k
SYMBOL res 200 128 R0
SYMATTR InstName R3
SYMATTR Value 1k
SYMBOL res 200 160 R0
SYMATTR InstName R4
SYMATTR Value 1k
SYMBOL res 200 192 R0
SYMATTR InstName R5
SYMATTR Value 1k
SYMBOL res 200 224 R0
SYMATTR InstName R6
SYMATTR Value 1k
FLAG 400 304 0