Version 4
SHEET 1 880 680
WIRE 208 72 128 72
WIRE 128 112 128 72
WIRE 128 112 48 112
WIRE 208 112 208 72
WIRE 288 112 208 112
WIRE 256 128 48 128
WIRE 288 128 288 112
WIRE 288 128 256 128
WIRE 128 152 128 112
WIRE 208 152 208 112
WIRE 208 152 128 152
FLAG 48 128 0
SYMBOL voltage 48 112 R0
WINDOW 123 0 0 Left 0
WINDOW 39 0 0 Left 0
SYMATTR InstName V1
SYMATTR Value 10
SYMBOL res 240 112 R0
SYMATTR InstName R1
SYMATTR Value 10
SYMBOL res 168 72 R0
SYMATTR InstName R2
SYMATTR Value 4
SYMBOL res 168 152 R0
SYMATTR InstName R3
SYMATTR Value 4