Version 4
SHEET 1 880 680
WIRE 80 112 160 112
WIRE 160 112 240 112
WIRE 160 112 300 112
WIRE 160 112 360 112
WIRE 80 192 160 192
WIRE 160 192 240 192
WIRE 160 192 300 192
WIRE 160 192 360 192
FLAG 80 192 0
SYMBOL voltage 80 112 R0
SYMATTR InstName V1
SYMATTR Value 5
SYMBOL res 256 128 R0
SYMATTR InstName R1
SYMATTR Value 4
SYMBOL res 316 128 R0
SYMATTR InstName R2
SYMATTR Value 4
SYMBOL res 376 128 R0
SYMATTR InstName R4
SYMATTR Value 4